ImportError: cannot import name 'setMaxInstsHack' from 'gem5.components.processors.simple_core' (unknown location)

At:
  x86-ubuntu-run-with-kvm-uipi-spec.py(50): <module>
  src/python/m5/main.py(629): main
gem5 Simulator System.  https://www.gem5.org
gem5 is copyrighted software; use the --copyright option for details.

gem5 version 23.0.0.0
gem5 compiled Oct 17 2024 09:54:38
gem5 started Nov 10 2024 22:53:54
gem5 executing on sapphire, pid 912801
command line: ./g x86-ubuntu-run-with-kvm-uipi-spec.py

ImportError: cannot import name 'setMaxInstsHack' from 'gem5.components.processors.simple_core' (unknown location)

At:
  x86-ubuntu-run-with-kvm-uipi-spec.py(50): <module>
  src/python/m5/main.py(629): main
gem5 Simulator System.  https://www.gem5.org
gem5 is copyrighted software; use the --copyright option for details.

gem5 version 23.0.0.0
gem5 compiled Oct 17 2024 09:54:38
gem5 started Nov 10 2024 22:53:55
gem5 executing on sapphire, pid 913205
command line: ./g x86-ubuntu-run-with-kvm-uipi-spec.py

ImportError: cannot import name 'setMaxInstsHack' from 'gem5.components.processors.simple_core' (unknown location)

At:
  x86-ubuntu-run-with-kvm-uipi-spec.py(50): <module>
  src/python/m5/main.py(629): main
gem5 Simulator System.  https://www.gem5.org
gem5 is copyrighted software; use the --copyright option for details.

gem5 version 23.0.0.0
gem5 compiled Oct 17 2024 09:54:38
gem5 started Nov 10 2024 22:53:56
gem5 executing on sapphire, pid 913375
command line: ./g x86-ubuntu-run-with-kvm-uipi-spec.py

ImportError: cannot import name 'setMaxInstsHack' from 'gem5.components.processors.simple_core' (unknown location)

At:
  x86-ubuntu-run-with-kvm-uipi-spec.py(50): <module>
  src/python/m5/main.py(629): main
gem5 Simulator System.  https://www.gem5.org
gem5 is copyrighted software; use the --copyright option for details.

gem5 version 23.0.0.0
gem5 compiled Oct 17 2024 09:54:38
gem5 started Nov 10 2024 22:53:58
gem5 executing on sapphire, pid 913521
command line: ./g x86-ubuntu-run-with-kvm-uipi-spec.py

ImportError: cannot import name 'setMaxInstsHack' from 'gem5.components.processors.simple_core' (unknown location)

At:
  x86-ubuntu-run-with-kvm-uipi-spec.py(50): <module>
  src/python/m5/main.py(629): main
gem5 Simulator System.  https://www.gem5.org
gem5 is copyrighted software; use the --copyright option for details.

gem5 version 23.0.0.0
gem5 compiled Oct 17 2024 09:54:38
gem5 started Nov 10 2024 22:53:59
gem5 executing on sapphire, pid 913735
command line: ./g x86-ubuntu-run-with-kvm-uipi-spec.py

ImportError: cannot import name 'setMaxInstsHack' from 'gem5.components.processors.simple_core' (unknown location)

At:
  x86-ubuntu-run-with-kvm-uipi-spec.py(50): <module>
  src/python/m5/main.py(629): main
gem5 Simulator System.  https://www.gem5.org
gem5 is copyrighted software; use the --copyright option for details.

gem5 version 23.0.0.0
gem5 compiled Oct 17 2024 09:54:38
gem5 started Nov 10 2024 22:54:00
gem5 executing on sapphire, pid 913923
command line: ./g x86-ubuntu-run-with-kvm-uipi-spec.py

ImportError: cannot import name 'setMaxInstsHack' from 'gem5.components.processors.simple_core' (unknown location)

At:
  x86-ubuntu-run-with-kvm-uipi-spec.py(50): <module>
  src/python/m5/main.py(629): main
gem5 Simulator System.  https://www.gem5.org
gem5 is copyrighted software; use the --copyright option for details.

gem5 version 23.0.0.0
gem5 compiled Oct 17 2024 09:54:38
gem5 started Nov 10 2024 22:54:01
gem5 executing on sapphire, pid 914088
command line: ./g x86-ubuntu-run-with-kvm-uipi-spec.py

ImportError: cannot import name 'setMaxInstsHack' from 'gem5.components.processors.simple_core' (unknown location)

At:
  x86-ubuntu-run-with-kvm-uipi-spec.py(50): <module>
  src/python/m5/main.py(629): main
gem5 Simulator System.  https://www.gem5.org
gem5 is copyrighted software; use the --copyright option for details.

gem5 version 23.0.0.0
gem5 compiled Oct 17 2024 09:54:38
gem5 started Nov 10 2024 22:54:02
gem5 executing on sapphire, pid 914274
command line: ./g x86-ubuntu-run-with-kvm-uipi-spec.py

ImportError: cannot import name 'setMaxInstsHack' from 'gem5.components.processors.simple_core' (unknown location)

At:
  x86-ubuntu-run-with-kvm-uipi-spec.py(50): <module>
  src/python/m5/main.py(629): main
gem5 Simulator System.  https://www.gem5.org
gem5 is copyrighted software; use the --copyright option for details.

gem5 version 23.0.0.0
gem5 compiled Oct 17 2024 09:54:38
gem5 started Nov 10 2024 22:54:03
gem5 executing on sapphire, pid 914464
command line: ./g x86-ubuntu-run-with-kvm-uipi-spec.py

ImportError: cannot import name 'setMaxInstsHack' from 'gem5.components.processors.simple_core' (unknown location)

At:
  x86-ubuntu-run-with-kvm-uipi-spec.py(50): <module>
  src/python/m5/main.py(629): main
gem5 Simulator System.  https://www.gem5.org
gem5 is copyrighted software; use the --copyright option for details.

gem5 version 23.0.0.0
gem5 compiled Oct 17 2024 09:54:38
gem5 started Nov 10 2024 22:54:04
gem5 executing on sapphire, pid 914631
command line: ./g x86-ubuntu-run-with-kvm-uipi-spec.py

ImportError: cannot import name 'setMaxInstsHack' from 'gem5.components.processors.simple_core' (unknown location)

At:
  x86-ubuntu-run-with-kvm-uipi-spec.py(50): <module>
  src/python/m5/main.py(629): main
gem5 Simulator System.  https://www.gem5.org
gem5 is copyrighted software; use the --copyright option for details.

gem5 version 23.0.0.0
gem5 compiled Oct 17 2024 09:54:38
gem5 started Nov 10 2024 22:54:05
gem5 executing on sapphire, pid 914819
command line: ./g x86-ubuntu-run-with-kvm-uipi-spec.py

