ImportError: cannot import name 'setMaxInstsHack' from 'gem5.components.processors.simple_core' (unknown location)

At:
  x86-ubuntu-run-with-kvm-uipi-spec.py(50): <module>
  src/python/m5/main.py(629): main
gem5 Simulator System.  https://www.gem5.org
gem5 is copyrighted software; use the --copyright option for details.

gem5 version 23.0.0.0
gem5 compiled Oct 17 2024 09:54:38
gem5 started Nov 10 2024 22:54:06
gem5 executing on sapphire, pid 915030
command line: ./g x86-ubuntu-run-with-kvm-uipi-spec.py

